CPDS_validation_cosim/Distribution/Bus11/IEEE34Bus/ieee34-1_VLL_Node.Txt

LINE-LINE VOLTAGES BY BUS & NODE

Bus       Node    VLN (kV)   Angle      pu     Base kV 

SOURCEBUS 1-2      72.45 /_   30.0      1.05    69.000
   -      2-3      72.45 /_  -90.0      1.05    69.000
   -      3-1      72.45 /_  150.0      1.05    69.000
800 ..... 1-2     26.145 /_    0.0      1.05    24.900
   -      2-3     26.145 /_ -120.0      1.05    24.900
   -      3-1     26.145 /_  120.0      1.05    24.900
802 ..... 1-2     26.096 /_    0.0     1.048    24.900
   -      2-3     26.104 /_ -120.1    1.0483    24.900
   -      3-1     26.094 /_  119.9     1.048    24.900
806 ..... 1-2     26.063 /_   -0.1    1.0467    24.900
   -      2-3     26.077 /_ -120.1    1.0473    24.900
   -      3-1     26.061 /_  119.9    1.0466    24.900
808 ..... 1-2     25.461 /_   -0.6    1.0225    24.900
   -      2-3     25.593 /_ -120.8    1.0278    24.900
   -      3-1     25.445 /_  119.0    1.0219    24.900
812 ..... 1-2     24.767 /_   -1.2   0.99464    24.900
   -      2-3     25.042 /_ -121.7    1.0057    24.900
   -      3-1     24.731 /_  118.0   0.99321    24.900
814 ..... 1-2     24.214 /_   -1.7   0.97244    24.900
   -      2-3     24.606 /_ -122.4   0.98817    24.900
   -      3-1     24.165 /_  117.1   0.97049    24.900
814R .... 1-2     25.627 /_   -2.6    1.0292    24.900
   -      2-3     25.371 /_ -122.4    1.0189    24.900
   -      3-1     25.579 /_  118.0    1.0273    24.900
850 ..... 1-2     25.627 /_   -2.6    1.0292    24.900
   -      2-3     25.371 /_ -122.4    1.0189    24.900
   -      3-1     25.578 /_  118.0    1.0272    24.900
816 ..... 1-2     25.619 /_   -2.6    1.0289    24.900
   -      2-3     25.364 /_ -122.4    1.0186    24.900
   -      3-1      25.57 /_  118.0    1.0269    24.900
824 ..... 1-2     25.402 /_   -2.8    1.0202    24.900
   -      2-3     25.144 /_ -122.6    1.0098    24.900
   -      3-1     25.339 /_  117.8    1.0176    24.900
828 ..... 1-2     25.385 /_   -2.8    1.0195    24.900
   -      2-3     25.127 /_ -122.7    1.0091    24.900
   -      3-1      25.32 /_  117.8    1.0169    24.900
830 ..... 1-2     24.972 /_   -3.2    1.0029    24.900
   -      2-3      24.71 /_ -123.1   0.99236    24.900
   -      3-1     24.861 /_  117.4   0.99842    24.900
854 ..... 1-2     24.962 /_   -3.2    1.0025    24.900
   -      2-3     24.699 /_ -123.1   0.99195    24.900
   -      3-1     24.849 /_  117.4   0.99796    24.900
832 ..... 1-2     26.212 /_   -3.8    1.0527    24.900
   -      2-3     25.847 /_ -124.1     1.038    24.900
   -      3-1     25.925 /_  116.7    1.0411    24.900
858 ..... 1-2     26.159 /_   -3.9    1.0505    24.900
   -      2-3     25.793 /_ -124.2    1.0359    24.900
   -      3-1     25.862 /_  116.6    1.0386    24.900
834 ..... 1-2     26.096 /_   -4.0     1.048    24.900
   -      2-3     25.731 /_ -124.3    1.0334    24.900
   -      3-1      25.79 /_  116.5    1.0357    24.900
860 ..... 1-2     26.086 /_   -4.0    1.0476    24.900
   -      2-3     25.722 /_ -124.3     1.033    24.900
   -      3-1     25.779 /_  116.5    1.0353    24.900
842 ..... 1-2     26.095 /_   -4.0     1.048    24.900
   -      2-3      25.73 /_ -124.3    1.0333    24.900
   -      3-1     25.789 /_  116.5    1.0357    24.900
836 ..... 1-2      26.08 /_   -4.0    1.0474    24.900
   -      2-3     25.715 /_ -124.3    1.0327    24.900
   -      3-1     25.774 /_  116.5    1.0351    24.900
840 ..... 1-2     26.079 /_   -4.0    1.0473    24.900
   -      2-3     25.714 /_ -124.3    1.0327    24.900
   -      3-1     25.774 /_  116.5    1.0351    24.900
862 ..... 1-2     26.079 /_   -4.0    1.0474    24.900
   -      2-3     25.715 /_ -124.3    1.0327    24.900
   -      3-1     25.774 /_  116.5    1.0351    24.900
844 ..... 1-2     26.088 /_   -4.0    1.0477    24.900
   -      2-3     25.723 /_ -124.3    1.0331    24.900
   -      3-1     25.783 /_  116.5    1.0355    24.900
846 ..... 1-2     26.092 /_   -4.1    1.0479    24.900
   -      2-3     25.727 /_ -124.4    1.0332    24.900
   -      3-1     25.789 /_  116.5    1.0357    24.900
848 ..... 1-2     26.092 /_   -4.1    1.0479    24.900
   -      2-3     25.728 /_ -124.4    1.0333    24.900
   -      3-1      25.79 /_  116.5    1.0357    24.900
852R .... 1-2     26.212 /_   -3.8    1.0527    24.900
   -      2-3     25.847 /_ -124.1     1.038    24.900
   -      3-1     25.925 /_  116.7    1.0412    24.900
888 ..... 1-2     4.2279 /_   -5.4    1.0163     4.160
   -      2-3     4.1681 /_ -125.6    1.0019     4.160
   -      3-1     4.1808 /_  115.2     1.005     4.160
852 ..... 1-2     24.246 /_   -3.8   0.97372    24.900
   -      2-3     23.977 /_ -124.0   0.96292    24.900
   -      3-1     24.049 /_  116.7   0.96583    24.900
890 ..... 1-2     3.9069 /_   -6.0   0.93917     4.160
   -      2-3     3.8389 /_ -126.7   0.92281     4.160
   -      3-1     3.8327 /_  114.5   0.92132     4.160
